data/radial_test/case16ci.m
function mpc = case16ci
%CASE16CI

%% MATPOWER Case Format : Version 2
mpc.version = '2';

%%-----  Power Flow Data  -----%%
%% system MVA base
mpc.baseMVA = 10;

%% bus data
%	bus_i	type	Pd	Qd	Gs	Bs	area	Vm	Va	baseKV	zone	Vmax	Vmin
mpc.bus = [
	1	3	0	0	0	0	1	1	0	12.66	1	1	1;
	2	3	0	0	0	0	1	1	0	12.66	1	1	1;
	3	3	0	0	0	0	1	1	0	12.66	1	1	1;
	4	1	2	1.6	0	0	1	1	0	12.66	1	1	1;
	5	1	3	0.4	0	0	1	1	0	12.66	1	1.1	0.9;
	6	1	2	-0.4	0	0	1	1	0	12.66	1	1.1	0.9;
	7	1	1.5	1.2	0	0	1	1	0	12.66	1	1.1	0.9;
	8	1	4	2.7	0	0	1	1	0	12.66	1	1.1	0.9;
	9	1	5	1.8	0	0	1	1	0	12.66	1	1.1	0.9;
	10	1	1	0.9	0	0	1	1	0	12.66	1	1.1	0.9;
	11	1	0.6	-0.5	0	0	1	1	0	12.66	1	1.1	0.9;
	12	1	4.5	-1.7	0	0	1	1	0	12.66	1	1.1	0.9;
	13	1	1	0.9	0	0	1	1	0	12.66	1	1.1	0.9;
	14	1	1	-1.1	0	0	1	1	0	12.66	1	1.1	0.9;
	15	1	1	0.9	0	0	1	1	0	12.66	1	1.1	0.9;
	16	1	2.1	-0.8	0	0	1	1	0	12.66	1	1.1	0.9;
];

%% generator data
%	bus	Pg	Qg	Qmax	Qmin	Vg	mBase	status	Pmax	Pmin	Pc1	Pc2	Qc1min	Qc1max	Qc2min	Qc2max	ramp_agc	ramp_10	ramp_30	ramp_q	apf
mpc.gen = [
	1	0	0	10	-10	1	100	1	10	0	0	0	0	0	0	0	0	0	0	0	0;
	2	0	0	10	-10	1	100	1	10	0	0	0	0	0	0	0	0	0	0	0	0;
	3	0	0	10	-10	1	100	1	10	0	0	0	0	0	0	0	0	0	0	0	0;
];

%% branch data
%	fbus	tbus	r	x	b	rateA	rateB	rateC	ratio	angle	status	angmin	angmax
mpc.branch = [
	1	4	0.00467943967	0.00623925289	0	0	0	0	0	0	1	-360	360;
	4	5	0.00499140231	0.00686317818	0	0	0	0	0	0	1	-360	360;
	4	6	0.0056153276	0.0112306552	0	0	0	0	0	0	1	-360	360;
	6	7	0.00249570115	0.00249570115	0	0	0	0	0	0	1	-360	360;
	2	8	0.00686317818	0.00686317818	0	0	0	0	0	0	1	-360	360;
	8	9	0.00499140231	0.00686317818	0	0	0	0	0	0	1	-360	360;
	8	10	0.00686317818	0.00686317818	0	0	0	0	0	0	1	-360	360;
	9	11	0.00686317818	0.00686317818	0	0	0	0	0	0	1	-360	360;
	9	12	0.00499140231	0.00686317818	0	0	0	0	0	0	1	-360	360;
	3	13	0.00686317818	0.00686317818	0	0	0	0	0	0	1	-360	360;
	13	14	0.0056153276	0.00748710346	0	0	0	0	0	0	1	-360	360;
	13	15	0.00499140231	0.00686317818	0	0	0	0	0	0	1	-360	360;
	15	16	0.00249570115	0.00249570115	0	0	0	0	0	0	1	-360	360;
	5	11	0.00249570115	0.00249570115	0	0	0	0	0	0	0	-360	360;
	10	14	0.00249570115	0.00249570115	0	0	0	0	0	0	0	-360	360;
	7	16	0.0056153276	0.00748710346	0	0	0	0	0	0	0	-360	360;
];

%%-----  OPF Data  -----%%
%% generator cost data
%	1	startup	shutdown	n	x1	y1	...	xn	yn
%	2	startup	shutdown	n	c(n-1)	...	c0
mpc.gencost = [
	2	0	0	3	0	20	0;
	2	0	0	3	0	20	0;
	2	0	0	3	0	20	0;
];
